MODEL 1
REMARK VINA RESULT:    -7.285      0.000      0.000
REMARK INTER + INTRA:          -8.731
REMARK INTER:                  -8.515
REMARK INTRA:                  -0.215
REMARK UNBOUND:                -0.168
REMARK  Name = 
REMARK  6 active torsions:
REMARK  status: ('A' for Active; 'I' for Inactive)
REMARK    1  A    between atoms: C_5  and  O_6
REMARK    2  A    between atoms: C_5  and  C_7
REMARK    3  A    between atoms: C_7  and  C_9
REMARK    4  A    between atoms: C_9  and  O_10
REMARK    5  A    between atoms: C_11  and  C_12
REMARK    6  A    between atoms: C_28  and  C_29
REMARK                            x       y       z     vdW  Elec       q    Type
REMARK                         _______ _______ _______ _____ _____    ______ ____
ROOT
ATOM      1  C   UNL     1      39.239  12.620  -2.557  0.00  0.00    +0.002 C 
ATOM      2  C   UNL     1      39.978  11.509  -1.827  0.00  0.00    +0.008 C 
ATOM      3  C   UNL     1      40.119  10.429  -2.912  0.00  0.00    +0.043 C 
ATOM      4  C   UNL     1      39.939  11.147  -4.282  0.00  0.00    +0.132 C 
ATOM      5  C   UNL     1      39.951  12.661  -3.932  0.00  0.00    +0.013 C 
ATOM      6  C   UNL     1      41.396  13.233  -3.852  0.00  0.00    +0.015 C 
ATOM      7  C   UNL     1      39.119  13.553  -4.859  0.00  0.00    +0.084 C 
ATOM      8  C   UNL     1      39.059  14.926  -4.234  0.00  0.00    +0.138 C 
ATOM      9  O   UNL     1      39.476  15.906  -4.859  0.00  0.00    -0.297 OA
ATOM     10  C   UNL     1      38.437  14.993  -2.829  0.00  0.00    +0.072 C 
ATOM     11  C   UNL     1      39.137  13.982  -1.874  0.00  0.00    +0.004 C 
ATOM     12  C   UNL     1      38.323  13.875  -0.577  0.00  0.00    +0.009 C 
ATOM     13  C   UNL     1      38.251  15.230   0.113  0.00  0.00    +0.032 C 
ATOM     14  C   UNL     1      37.679  16.265  -0.826  0.00  0.00    -0.056 C 
ATOM     15  C   UNL     1      36.578  16.944  -0.454  0.00  0.00    +0.051 C 
ATOM     16  C   UNL     1      35.906  17.889  -1.364  0.00  0.00    +0.179 C 
ATOM     17  O   UNL     1      34.989  18.600  -0.971  0.00  0.00    -0.288 OA
ATOM     18  C   UNL     1      36.366  17.933  -2.758  0.00  0.00    +0.047 C 
ATOM     19  C   UNL     1      37.470  17.276  -3.129  0.00  0.00    -0.012 C 
ATOM     20  C   UNL     1      38.339  16.418  -2.214  0.00  0.00    +0.017 C 
ATOM     21  C   UNL     1      39.725  17.097  -2.055  0.00  0.00    +0.021 C 
ENDROOT
BRANCH   4  22
ATOM     22  O   UNL     1      38.640  10.800  -4.781  0.00  0.00    -0.380 OA
ATOM     23  H   UNL     1      37.977  11.361  -4.340  0.00  0.00    +0.211 HD
ENDBRANCH   4  22
BRANCH   4  24
ATOM     24  C   UNL     1      41.008  10.753  -5.316  0.00  0.00    +0.190 C 
ATOM     25  O   UNL     1      40.984  11.149  -6.485  0.00  0.00    -0.292 OA
BRANCH  24  26
ATOM     26  C   UNL     1      42.121   9.827  -4.839  0.00  0.00    +0.233 C 
BRANCH  26  27
ATOM     27  O   UNL     1      43.393  10.455  -4.890  0.00  0.00    -0.387 OA
ATOM     28  H   UNL     1      43.758  10.415  -3.984  0.00  0.00    +0.210 HD
ENDBRANCH  26  27
ENDBRANCH  24  26
ENDBRANCH   4  24
TORSDOF 4
ENDMDL
MODEL 2
REMARK VINA RESULT:    -7.243      1.672      7.015
REMARK INTER + INTRA:          -8.682
REMARK INTER:                  -8.574
REMARK INTRA:                  -0.108
REMARK UNBOUND:                -0.168
REMARK  Name = 
REMARK  6 active torsions:
REMARK  status: ('A' for Active; 'I' for Inactive)
REMARK    1  A    between atoms: C_5  and  O_6
REMARK    2  A    between atoms: C_5  and  C_7
REMARK    3  A    between atoms: C_7  and  C_9
REMARK    4  A    between atoms: C_9  and  O_10
REMARK    5  A    between atoms: C_11  and  C_12
REMARK    6  A    between atoms: C_28  and  C_29
REMARK                            x       y       z     vdW  Elec       q    Type
REMARK                         _______ _______ _______ _____ _____    ______ ____
ROOT
ATOM      1  C   UNL     1      38.957  14.363  -1.569  0.00  0.00    +0.002 C 
ATOM      2  C   UNL     1      37.873  14.468  -0.507  0.00  0.00    +0.008 C 
ATOM      3  C   UNL     1      38.104  15.873   0.072  0.00  0.00    +0.043 C 
ATOM      4  C   UNL     1      38.919  16.666  -0.992  0.00  0.00    +0.132 C 
ATOM      5  C   UNL     1      38.905  15.753  -2.251  0.00  0.00    +0.013 C 
ATOM      6  C   UNL     1      37.626  15.962  -3.112  0.00  0.00    +0.015 C 
ATOM      7  C   UNL     1      40.135  15.871  -3.157  0.00  0.00    +0.084 C 
ATOM      8  C   UNL     1      40.055  14.760  -4.176  0.00  0.00    +0.138 C 
ATOM      9  O   UNL     1      40.041  15.030  -5.381  0.00  0.00    -0.297 OA
ATOM     10  C   UNL     1      40.023  13.333  -3.606  0.00  0.00    +0.072 C 
ATOM     11  C   UNL     1      38.889  13.193  -2.548  0.00  0.00    +0.004 C 
ATOM     12  C   UNL     1      39.058  11.860  -1.807  0.00  0.00    +0.009 C 
ATOM     13  C   UNL     1      38.959  10.697  -2.785  0.00  0.00    +0.032 C 
ATOM     14  C   UNL     1      39.974  10.858  -3.892  0.00  0.00    -0.056 C 
ATOM     15  C   UNL     1      40.872   9.877  -4.100  0.00  0.00    +0.051 C 
ATOM     16  C   UNL     1      41.955  10.016  -5.090  0.00  0.00    +0.179 C 
ATOM     17  O   UNL     1      42.682   9.069  -5.368  0.00  0.00    -0.288 OA
ATOM     18  C   UNL     1      42.139  11.332  -5.716  0.00  0.00    +0.047 C 
ATOM     19  C   UNL     1      41.241  12.304  -5.528  0.00  0.00    -0.012 C 
ATOM     20  C   UNL     1      39.987  12.195  -4.666  0.00  0.00    +0.017 C 
ATOM     21  C   UNL     1      38.738  12.272  -5.584  0.00  0.00    +0.021 C 
ENDROOT
BRANCH   4  22
ATOM     22  O   UNL     1      40.266  16.768  -0.512  0.00  0.00    -0.380 OA
ATOM     23  H   UNL     1      40.248  17.128   0.393  0.00  0.00    +0.211 HD
ENDBRANCH   4  22
BRANCH   4  24
ATOM     24  C   UNL     1      38.360  18.074  -1.257  0.00  0.00    +0.190 C 
ATOM     25  O   UNL     1      39.015  18.960  -1.814  0.00  0.00    -0.292 OA
BRANCH  24  26
ATOM     26  C   UNL     1      36.935  18.350  -0.787  0.00  0.00    +0.233 C 
BRANCH  26  27
ATOM     27  O   UNL     1      36.603  19.728  -0.880  0.00  0.00    -0.387 OA
ATOM     28  H   UNL     1      37.435  20.199  -1.084  0.00  0.00    +0.210 HD
ENDBRANCH  26  27
ENDBRANCH  24  26
ENDBRANCH   4  24
TORSDOF 4
ENDMDL
MODEL 3
REMARK VINA RESULT:    -7.149      1.770      7.220
REMARK INTER + INTRA:          -8.571
REMARK INTER:                  -8.281
REMARK INTRA:                  -0.290
REMARK UNBOUND:                -0.168
REMARK  Name = 
REMARK  6 active torsions:
REMARK  status: ('A' for Active; 'I' for Inactive)
REMARK    1  A    between atoms: C_5  and  O_6
REMARK    2  A    between atoms: C_5  and  C_7
REMARK    3  A    between atoms: C_7  and  C_9
REMARK    4  A    between atoms: C_9  and  O_10
REMARK    5  A    between atoms: C_11  and  C_12
REMARK    6  A    between atoms: C_28  and  C_29
REMARK                            x       y       z     vdW  Elec       q    Type
REMARK                         _______ _______ _______ _____ _____    ______ ____
ROOT
ATOM      1  C   UNL     1      37.146  15.310  -3.777  0.00  0.00    +0.002 C 
ATOM      2  C   UNL     1      36.656  16.569  -4.476  0.00  0.00    +0.008 C 
ATOM      3  C   UNL     1      35.734  17.203  -3.421  0.00  0.00    +0.043 C 
ATOM      4  C   UNL     1      36.140  16.590  -2.048  0.00  0.00    +0.132 C 
ATOM      5  C   UNL     1      37.453  15.811  -2.343  0.00  0.00    +0.013 C 
ATOM      6  C   UNL     1      38.707  16.729  -2.274  0.00  0.00    +0.015 C 
ATOM      7  C   UNL     1      37.693  14.580  -1.463  0.00  0.00    +0.084 C 
ATOM      8  C   UNL     1      38.869  13.831  -2.044  0.00  0.00    +0.138 C 
ATOM      9  O   UNL     1      39.870  13.625  -1.350  0.00  0.00    -0.297 OA
ATOM     10  C   UNL     1      38.705  13.351  -3.494  0.00  0.00    +0.072 C 
ATOM     11  C   UNL     1      38.295  14.535  -4.418  0.00  0.00    +0.004 C 
ATOM     12  C   UNL     1      37.873  13.979  -5.785  0.00  0.00    +0.009 C 
ATOM     13  C   UNL     1      39.033  13.235  -6.432  0.00  0.00    +0.032 C 
ATOM     14  C   UNL     1      39.532  12.146  -5.512  0.00  0.00    -0.056 C 
ATOM     15  C   UNL     1      39.551  10.875  -5.956  0.00  0.00    +0.051 C 
ATOM     16  C   UNL     1      39.922   9.752  -5.077  0.00  0.00    +0.179 C 
ATOM     17  O   UNL     1      40.068   8.621  -5.525  0.00  0.00    -0.288 OA
ATOM     18  C   UNL     1      40.096  10.038  -3.647  0.00  0.00    +0.047 C 
ATOM     19  C   UNL     1      40.098  11.299  -3.202  0.00  0.00    -0.012 C 
ATOM     20  C   UNL     1      39.904  12.542  -4.066  0.00  0.00    +0.017 C 
ATOM     21  C   UNL     1      41.224  13.357  -4.077  0.00  0.00    +0.021 C 
ENDROOT
BRANCH   4  22
ATOM     22  O   UNL     1      35.120  15.651  -1.680  0.00  0.00    -0.380 OA
ATOM     23  H   UNL     1      34.250  16.052  -1.856  0.00  0.00    +0.211 HD
ENDBRANCH   4  22
BRANCH   4  24
ATOM     24  C   UNL     1      36.294  17.643  -0.938  0.00  0.00    +0.190 C 
ATOM     25  O   UNL     1      36.374  18.852  -1.171  0.00  0.00    -0.292 OA
BRANCH  24  26
ATOM     26  C   UNL     1      36.355  17.129   0.497  0.00  0.00    +0.233 C 
BRANCH  26  27
ATOM     27  O   UNL     1      35.110  16.594   0.922  0.00  0.00    -0.387 OA
ATOM     28  H   UNL     1      35.076  16.711   1.892  0.00  0.00    +0.210 HD
ENDBRANCH  26  27
ENDBRANCH  24  26
ENDBRANCH   4  24
TORSDOF 4
ENDMDL
MODEL 4
REMARK VINA RESULT:    -6.873      1.747      7.245
REMARK INTER + INTRA:          -8.246
REMARK INTER:                  -7.955
REMARK INTRA:                  -0.291
REMARK UNBOUND:                -0.168
REMARK  Name = 
REMARK  6 active torsions:
REMARK  status: ('A' for Active; 'I' for Inactive)
REMARK    1  A    between atoms: C_5  and  O_6
REMARK    2  A    between atoms: C_5  and  C_7
REMARK    3  A    between atoms: C_7  and  C_9
REMARK    4  A    between atoms: C_9  and  O_10
REMARK    5  A    between atoms: C_11  and  C_12
REMARK    6  A    between atoms: C_28  and  C_29
REMARK                            x       y       z     vdW  Elec       q    Type
REMARK                         _______ _______ _______ _____ _____    ______ ____
ROOT
ATOM      1  C   UNL     1      38.814  16.373  -3.477  0.00  0.00    +0.002 C 
ATOM      2  C   UNL     1      39.394  17.748  -3.771  0.00  0.00    +0.008 C 
ATOM      3  C   UNL     1      38.163  18.663  -3.669  0.00  0.00    +0.043 C 
ATOM      4  C   UNL     1      37.098  17.886  -2.840  0.00  0.00    +0.132 C 
ATOM      5  C   UNL     1      37.862  16.651  -2.286  0.00  0.00    +0.013 C 
ATOM      6  C   UNL     1      38.617  16.972  -0.965  0.00  0.00    +0.015 C 
ATOM      7  C   UNL     1      37.007  15.397  -2.074  0.00  0.00    +0.084 C 
ATOM      8  C   UNL     1      37.947  14.255  -1.767  0.00  0.00    +0.138 C 
ATOM      9  O   UNL     1      37.833  13.631  -0.708  0.00  0.00    -0.297 OA
ATOM     10  C   UNL     1      38.990  13.939  -2.852  0.00  0.00    +0.072 C 
ATOM     11  C   UNL     1      39.786  15.222  -3.234  0.00  0.00    +0.004 C 
ATOM     12  C   UNL     1      40.613  14.939  -4.495  0.00  0.00    +0.009 C 
ATOM     13  C   UNL     1      41.601  13.810  -4.236  0.00  0.00    +0.032 C 
ATOM     14  C   UNL     1      40.872  12.578  -3.754  0.00  0.00    -0.056 C 
ATOM     15  C   UNL     1      41.009  11.429  -4.441  0.00  0.00    +0.051 C 
ATOM     16  C   UNL     1      40.243  10.220  -4.090  0.00  0.00    +0.179 C 
ATOM     17  O   UNL     1      40.475   9.146  -4.632  0.00  0.00    -0.288 OA
ATOM     18  C   UNL     1      39.185  10.355  -3.080  0.00  0.00    +0.047 C 
ATOM     19  C   UNL     1      39.056  11.487  -2.381  0.00  0.00    -0.012 C 
ATOM     20  C   UNL     1      39.923  12.732  -2.545  0.00  0.00    +0.017 C 
ATOM     21  C   UNL     1      40.758  12.937  -1.254  0.00  0.00    +0.021 C 
ENDROOT
BRANCH   4  22
ATOM     22  O   UNL     1      36.090  17.434  -3.754  0.00  0.00    -0.380 OA
ATOM     23  H   UNL     1      36.521  16.932  -4.469  0.00  0.00    +0.211 HD
ENDBRANCH   4  22
BRANCH   4  24
ATOM     24  C   UNL     1      36.446  18.742  -1.740  0.00  0.00    +0.190 C 
ATOM     25  O   UNL     1      36.965  19.771  -1.299  0.00  0.00    -0.292 OA
BRANCH  24  26
ATOM     26  C   UNL     1      35.108  18.258  -1.192  0.00  0.00    +0.233 C 
BRANCH  26  27
ATOM     27  O   UNL     1      34.016  18.722  -1.973  0.00  0.00    -0.387 OA
ATOM     28  H   UNL     1      33.209  18.551  -1.448  0.00  0.00    +0.210 HD
ENDBRANCH  26  27
ENDBRANCH  24  26
ENDBRANCH   4  24
TORSDOF 4
ENDMDL
MODEL 5
REMARK VINA RESULT:    -6.710     17.243     21.455
REMARK INTER + INTRA:          -8.055
REMARK INTER:                  -7.756
REMARK INTRA:                  -0.299
REMARK UNBOUND:                -0.168
REMARK  Name = 
REMARK  6 active torsions:
REMARK  status: ('A' for Active; 'I' for Inactive)
REMARK    1  A    between atoms: C_5  and  O_6
REMARK    2  A    between atoms: C_5  and  C_7
REMARK    3  A    between atoms: C_7  and  C_9
REMARK    4  A    between atoms: C_9  and  O_10
REMARK    5  A    between atoms: C_11  and  C_12
REMARK    6  A    between atoms: C_28  and  C_29
REMARK                            x       y       z     vdW  Elec       q    Type
REMARK                         _______ _______ _______ _____ _____    ______ ____
ROOT
ATOM      1  C   UNL     1      29.349  30.924   2.965  0.00  0.00    +0.002 C 
ATOM      2  C   UNL     1      30.562  31.307   2.131  0.00  0.00    +0.008 C 
ATOM      3  C   UNL     1      30.972  29.968   1.497  0.00  0.00    +0.043 C 
ATOM      4  C   UNL     1      29.724  29.040   1.569  0.00  0.00    +0.132 C 
ATOM      5  C   UNL     1      28.568  29.977   2.019  0.00  0.00    +0.013 C 
ATOM      6  C   UNL     1      27.914  30.720   0.819  0.00  0.00    +0.015 C 
ATOM      7  C   UNL     1      27.466  29.305   2.844  0.00  0.00    +0.084 C 
ATOM      8  C   UNL     1      26.573  30.397   3.383  0.00  0.00    +0.138 C 
ATOM      9  O   UNL     1      25.368  30.397   3.112  0.00  0.00    -0.297 OA
ATOM     10  C   UNL     1      27.261  31.441   4.276  0.00  0.00    +0.072 C 
ATOM     11  C   UNL     1      28.500  32.048   3.553  0.00  0.00    +0.004 C 
ATOM     12  C   UNL     1      29.314  32.869   4.561  0.00  0.00    +0.009 C 
ATOM     13  C   UNL     1      28.470  34.006   5.119  0.00  0.00    +0.032 C 
ATOM     14  C   UNL     1      27.202  33.462   5.732  0.00  0.00    -0.056 C 
ATOM     15  C   UNL     1      26.933  33.733   7.023  0.00  0.00    +0.051 C 
ATOM     16  C   UNL     1      25.771  33.146   7.713  0.00  0.00    +0.179 C 
ATOM     17  O   UNL     1      25.460  33.504   8.843  0.00  0.00    -0.288 OA
ATOM     18  C   UNL     1      25.012  32.108   7.002  0.00  0.00    +0.047 C 
ATOM     19  C   UNL     1      25.261  31.848   5.715  0.00  0.00    -0.012 C 
ATOM     20  C   UNL     1      26.324  32.535   4.863  0.00  0.00    +0.017 C 
ATOM     21  C   UNL     1      25.621  33.372   3.762  0.00  0.00    +0.021 C 
ENDROOT
BRANCH   4  22
ATOM     22  O   UNL     1      29.965  28.076   2.603  0.00  0.00    -0.380 OA
ATOM     23  H   UNL     1      29.640  28.437   3.447  0.00  0.00    +0.211 HD
ENDBRANCH   4  22
BRANCH   4  24
ATOM     24  C   UNL     1      29.435  28.311   0.246  0.00  0.00    +0.190 C 
ATOM     25  O   UNL     1      29.894  28.685  -0.837  0.00  0.00    -0.292 OA
BRANCH  24  26
ATOM     26  C   UNL     1      28.532  27.084   0.317  0.00  0.00    +0.233 C 
BRANCH  26  27
ATOM     27  O   UNL     1      29.256  25.912   0.661  0.00  0.00    -0.387 OA
ATOM     28  H   UNL     1      30.161  26.033   0.311  0.00  0.00    +0.210 HD
ENDBRANCH  26  27
ENDBRANCH  24  26
ENDBRANCH   4  24
TORSDOF 4
ENDMDL
MODEL 6
REMARK VINA RESULT:    -6.664     18.634     20.764
REMARK INTER + INTRA:          -8.001
REMARK INTER:                  -7.826
REMARK INTRA:                  -0.175
REMARK UNBOUND:                -0.168
REMARK  Name = 
REMARK  6 active torsions:
REMARK  status: ('A' for Active; 'I' for Inactive)
REMARK    1  A    between atoms: C_5  and  O_6
REMARK    2  A    between atoms: C_5  and  C_7
REMARK    3  A    between atoms: C_7  and  C_9
REMARK    4  A    between atoms: C_9  and  O_10
REMARK    5  A    between atoms: C_11  and  C_12
REMARK    6  A    between atoms: C_28  and  C_29
REMARK                            x       y       z     vdW  Elec       q    Type
REMARK                         _______ _______ _______ _____ _____    ______ ____
ROOT
ATOM      1  C   UNL     1      31.286  30.322   2.882  0.00  0.00    +0.002 C 
ATOM      2  C   UNL     1      32.196  29.178   3.300  0.00  0.00    +0.008 C 
ATOM      3  C   UNL     1      33.378  29.910   3.957  0.00  0.00    +0.043 C 
ATOM      4  C   UNL     1      32.865  31.330   4.341  0.00  0.00    +0.132 C 
ATOM      5  C   UNL     1      31.329  31.263   4.112  0.00  0.00    +0.013 C 
ATOM      6  C   UNL     1      30.577  30.686   5.346  0.00  0.00    +0.015 C 
ATOM      7  C   UNL     1      30.671  32.586   3.708  0.00  0.00    +0.084 C 
ATOM      8  C   UNL     1      29.248  32.279   3.304  0.00  0.00    +0.138 C 
ATOM      9  O   UNL     1      28.310  32.827   3.891  0.00  0.00    -0.297 OA
ATOM     10  C   UNL     1      29.084  31.293   2.136  0.00  0.00    +0.072 C 
ATOM     11  C   UNL     1      29.873  29.980   2.416  0.00  0.00    +0.004 C 
ATOM     12  C   UNL     1      29.917  29.141   1.132  0.00  0.00    +0.009 C 
ATOM     13  C   UNL     1      28.506  28.778   0.690  0.00  0.00    +0.032 C 
ATOM     14  C   UNL     1      27.675  30.027   0.517  0.00  0.00    -0.056 C 
ATOM     15  C   UNL     1      27.097  30.266  -0.674  0.00  0.00    +0.051 C 
ATOM     16  C   UNL     1      26.364  31.515  -0.945  0.00  0.00    +0.179 C 
ATOM     17  O   UNL     1      25.729  31.663  -1.982  0.00  0.00    -0.288 OA
ATOM     18  C   UNL     1      26.438  32.578   0.067  0.00  0.00    +0.047 C 
ATOM     19  C   UNL     1      26.994  32.342   1.259  0.00  0.00    -0.012 C 
ATOM     20  C   UNL     1      27.616  31.020   1.699  0.00  0.00    +0.017 C 
ATOM     21  C   UNL     1      26.756  30.415   2.840  0.00  0.00    +0.021 C 
ENDROOT
BRANCH   4  22
ATOM     22  O   UNL     1      33.430  32.258   3.406  0.00  0.00    -0.380 OA
ATOM     23  H   UNL     1      34.401  32.208   3.466  0.00  0.00    +0.211 HD
ENDBRANCH   4  22
BRANCH   4  24
ATOM     24  C   UNL     1      33.249  31.745   5.772  0.00  0.00    +0.190 C 
ATOM     25  O   UNL     1      32.888  32.810   6.278  0.00  0.00    -0.292 OA
BRANCH  24  26
ATOM     26  C   UNL     1      34.121  30.774   6.561  0.00  0.00    +0.233 C 
BRANCH  26  27
ATOM     27  O   UNL     1      33.410  30.172   7.632  0.00  0.00    -0.387 OA
ATOM     28  H   UNL     1      32.619  30.726   7.784  0.00  0.00    +0.210 HD
ENDBRANCH  26  27
ENDBRANCH  24  26
ENDBRANCH   4  24
TORSDOF 4
ENDMDL
MODEL 7
REMARK VINA RESULT:    -6.612      1.513      2.311
REMARK INTER + INTRA:          -7.940
REMARK INTER:                  -7.634
REMARK INTRA:                  -0.306
REMARK UNBOUND:                -0.168
REMARK  Name = 
REMARK  6 active torsions:
REMARK  status: ('A' for Active; 'I' for Inactive)
REMARK    1  A    between atoms: C_5  and  O_6
REMARK    2  A    between atoms: C_5  and  C_7
REMARK    3  A    between atoms: C_7  and  C_9
REMARK    4  A    between atoms: C_9  and  O_10
REMARK    5  A    between atoms: C_11  and  C_12
REMARK    6  A    between atoms: C_28  and  C_29
REMARK                            x       y       z     vdW  Elec       q    Type
REMARK                         _______ _______ _______ _____ _____    ______ ____
ROOT
ATOM      1  C   UNL     1      39.673  11.514  -3.641  0.00  0.00    +0.002 C 
ATOM      2  C   UNL     1      40.285  10.131  -3.477  0.00  0.00    +0.008 C 
ATOM      3  C   UNL     1      40.121   9.522  -4.879  0.00  0.00    +0.043 C 
ATOM      4  C   UNL     1      39.920  10.712  -5.862  0.00  0.00    +0.132 C 
ATOM      5  C   UNL     1      40.229  11.976  -5.011  0.00  0.00    +0.013 C 
ATOM      6  C   UNL     1      41.751  12.299  -4.972  0.00  0.00    +0.015 C 
ATOM      7  C   UNL     1      39.467  13.241  -5.419  0.00  0.00    +0.084 C 
ATOM      8  C   UNL     1      39.710  14.281  -4.351  0.00  0.00    +0.138 C 
ATOM      9  O   UNL     1      40.219  15.364  -4.652  0.00  0.00    -0.297 OA
ATOM     10  C   UNL     1      39.264  13.896  -2.931  0.00  0.00    +0.072 C 
ATOM     11  C   UNL     1      39.879  12.527  -2.517  0.00  0.00    +0.004 C 
ATOM     12  C   UNL     1      39.203  12.046  -1.226  0.00  0.00    +0.009 C 
ATOM     13  C   UNL     1      39.439  13.046  -0.103  0.00  0.00    +0.032 C 
ATOM     14  C   UNL     1      38.955  14.416  -0.514  0.00  0.00    -0.056 C 
ATOM     15  C   UNL     1      38.033  15.036   0.245  0.00  0.00    +0.051 C 
ATOM     16  C   UNL     1      37.438  16.324  -0.154  0.00  0.00    +0.179 C 
ATOM     17  O   UNL     1      36.704  16.944   0.606  0.00  0.00    -0.288 OA
ATOM     18  C   UNL     1      37.747  16.826  -1.500  0.00  0.00    +0.047 C 
ATOM     19  C   UNL     1      38.675  16.226  -2.251  0.00  0.00    -0.012 C 
ATOM     20  C   UNL     1      39.478  14.993  -1.848  0.00  0.00    +0.017 C 
ATOM     21  C   UNL     1      40.969  15.393  -1.689  0.00  0.00    +0.021 C 
ENDROOT
BRANCH   4  22
ATOM     22  O   UNL     1      38.536  10.734  -6.233  0.00  0.00    -0.380 OA
ATOM     23  H   UNL     1      38.385  10.053  -6.913  0.00  0.00    +0.211 HD
ENDBRANCH   4  22
BRANCH   4  24
ATOM     24  C   UNL     1      40.789  10.605  -7.127  0.00  0.00    +0.190 C 
ATOM     25  O   UNL     1      41.779   9.872  -7.197  0.00  0.00    -0.292 OA
BRANCH  24  26
ATOM     26  C   UNL     1      40.379  11.462  -8.320  0.00  0.00    +0.233 C 
BRANCH  26  27
ATOM     27  O   UNL     1      39.284  10.899  -9.027  0.00  0.00    -0.387 OA
ATOM     28  H   UNL     1      39.620  10.089  -9.459  0.00  0.00    +0.210 HD
ENDBRANCH  26  27
ENDBRANCH  24  26
ENDBRANCH   4  24
TORSDOF 4
ENDMDL
MODEL 8
REMARK VINA RESULT:    -6.540      1.953      7.187
REMARK INTER + INTRA:          -7.856
REMARK INTER:                  -7.688
REMARK INTRA:                  -0.168
REMARK UNBOUND:                -0.168
REMARK  Name = 
REMARK  6 active torsions:
REMARK  status: ('A' for Active; 'I' for Inactive)
REMARK    1  A    between atoms: C_5  and  O_6
REMARK    2  A    between atoms: C_5  and  C_7
REMARK    3  A    between atoms: C_7  and  C_9
REMARK    4  A    between atoms: C_9  and  O_10
REMARK    5  A    between atoms: C_11  and  C_12
REMARK    6  A    between atoms: C_28  and  C_29
REMARK                            x       y       z     vdW  Elec       q    Type
REMARK                         _______ _______ _______ _____ _____    ______ ____
ROOT
ATOM      1  C   UNL     1      38.358  16.804  -3.416  0.00  0.00    +0.002 C 
ATOM      2  C   UNL     1      38.204  18.127  -2.682  0.00  0.00    +0.008 C 
ATOM      3  C   UNL     1      36.754  18.524  -3.003  0.00  0.00    +0.043 C 
ATOM      4  C   UNL     1      36.020  17.221  -3.436  0.00  0.00    +0.132 C 
ATOM      5  C   UNL     1      37.024  16.081  -3.103  0.00  0.00    +0.013 C 
ATOM      6  C   UNL     1      36.915  15.619  -1.621  0.00  0.00    +0.015 C 
ATOM      7  C   UNL     1      36.939  14.850  -4.011  0.00  0.00    +0.084 C 
ATOM      8  C   UNL     1      38.125  13.971  -3.694  0.00  0.00    +0.138 C 
ATOM      9  O   UNL     1      37.945  12.808  -3.319  0.00  0.00    -0.297 OA
ATOM     10  C   UNL     1      39.506  14.614  -3.897  0.00  0.00    +0.072 C 
ATOM     11  C   UNL     1      39.598  15.964  -3.125  0.00  0.00    +0.004 C 
ATOM     12  C   UNL     1      40.868  16.705  -3.565  0.00  0.00    +0.009 C 
ATOM     13  C   UNL     1      42.102  15.873  -3.244  0.00  0.00    +0.032 C 
ATOM     14  C   UNL     1      41.995  14.511  -3.887  0.00  0.00    -0.056 C 
ATOM     15  C   UNL     1      42.963  14.112  -4.732  0.00  0.00    +0.051 C 
ATOM     16  C   UNL     1      42.869  12.842  -5.475  0.00  0.00    +0.179 C 
ATOM     17  O   UNL     1      43.813  12.425  -6.135  0.00  0.00    -0.288 OA
ATOM     18  C   UNL     1      41.598  12.109  -5.407  0.00  0.00    +0.047 C 
ATOM     19  C   UNL     1      40.640  12.489  -4.556  0.00  0.00    -0.012 C 
ATOM     20  C   UNL     1      40.720  13.684  -3.610  0.00  0.00    +0.017 C 
ATOM     21  C   UNL     1      40.745  13.168  -2.148  0.00  0.00    +0.021 C 
ENDROOT
BRANCH   4  22
ATOM     22  O   UNL     1      35.845  17.280  -4.858  0.00  0.00    -0.380 OA
ATOM     23  H   UNL     1      36.338  18.046  -5.200  0.00  0.00    +0.211 HD
ENDBRANCH   4  22
BRANCH   4  24
ATOM     24  C   UNL     1      34.651  17.043  -2.757  0.00  0.00    +0.190 C 
ATOM     25  O   UNL     1      33.907  16.088  -2.994  0.00  0.00    -0.292 OA
BRANCH  24  26
ATOM     26  C   UNL     1      34.230  18.119  -1.762  0.00  0.00    +0.233 C 
BRANCH  26  27
ATOM     27  O   UNL     1      33.189  18.938  -2.275  0.00  0.00    -0.387 OA
ATOM     28  H   UNL     1      32.543  19.050  -1.549  0.00  0.00    +0.210 HD
ENDBRANCH  26  27
ENDBRANCH  24  26
ENDBRANCH   4  24
TORSDOF 4
ENDMDL
MODEL 9
REMARK VINA RESULT:    -6.458      2.511      7.246
REMARK INTER + INTRA:          -7.759
REMARK INTER:                  -7.552
REMARK INTRA:                  -0.207
REMARK UNBOUND:                -0.168
REMARK  Name = 
REMARK  6 active torsions:
REMARK  status: ('A' for Active; 'I' for Inactive)
REMARK    1  A    between atoms: C_5  and  O_6
REMARK    2  A    between atoms: C_5  and  C_7
REMARK    3  A    between atoms: C_7  and  C_9
REMARK    4  A    between atoms: C_9  and  O_10
REMARK    5  A    between atoms: C_11  and  C_12
REMARK    6  A    between atoms: C_28  and  C_29
REMARK                            x       y       z     vdW  Elec       q    Type
REMARK                         _______ _______ _______ _____ _____    ______ ____
ROOT
ATOM      1  C   UNL     1      40.314  12.211  -2.810  0.00  0.00    +0.002 C 
ATOM      2  C   UNL     1      39.140  11.588  -2.071  0.00  0.00    +0.008 C 
ATOM      3  C   UNL     1      38.956  12.533  -0.873  0.00  0.00    +0.043 C 
ATOM      4  C   UNL     1      39.648  13.876  -1.253  0.00  0.00    +0.132 C 
ATOM      5  C   UNL     1      39.984  13.724  -2.764  0.00  0.00    +0.013 C 
ATOM      6  C   UNL     1      38.785  14.115  -3.674  0.00  0.00    +0.015 C 
ATOM      7  C   UNL     1      41.229  14.484  -3.234  0.00  0.00    +0.084 C 
ATOM      8  C   UNL     1      41.528  14.034  -4.644  0.00  0.00    +0.138 C 
ATOM      9  O   UNL     1      41.565  14.861  -5.560  0.00  0.00    -0.297 OA
ATOM     10  C   UNL     1      41.797  12.531  -4.821  0.00  0.00    +0.072 C 
ATOM     11  C   UNL     1      40.636  11.693  -4.210  0.00  0.00    +0.004 C 
ATOM     12  C   UNL     1      41.059  10.219  -4.155  0.00  0.00    +0.009 C 
ATOM     13  C   UNL     1      41.349   9.701  -5.556  0.00  0.00    +0.032 C 
ATOM     14  C   UNL     1      42.395  10.561  -6.225  0.00  0.00    -0.056 C 
ATOM     15  C   UNL     1      43.525   9.983  -6.673  0.00  0.00    +0.051 C 
ATOM     16  C   UNL     1      44.631  10.778  -7.237  0.00  0.00    +0.179 C 
ATOM     17  O   UNL     1      45.594  10.234  -7.765  0.00  0.00    -0.288 OA
ATOM     18  C   UNL     1      44.541  12.240  -7.128  0.00  0.00    +0.047 C 
ATOM     19  C   UNL     1      43.415  12.820  -6.702  0.00  0.00    -0.012 C 
ATOM     20  C   UNL     1      42.149  12.085  -6.270  0.00  0.00    +0.017 C 
ATOM     21  C   UNL     1      41.017  12.397  -7.283  0.00  0.00    +0.021 C 
ENDROOT
BRANCH   4  22
ATOM     22  O   UNL     1      40.873  13.952  -0.513  0.00  0.00    -0.380 OA
ATOM     23  H   UNL     1      40.670  14.232   0.397  0.00  0.00    +0.211 HD
ENDBRANCH   4  22
BRANCH   4  24
ATOM     24  C   UNL     1      38.783  15.110  -0.944  0.00  0.00    +0.190 C 
ATOM     25  O   UNL     1      37.631  15.027  -0.510  0.00  0.00    -0.292 OA
BRANCH  24  26
ATOM     26  C   UNL     1      39.411  16.475  -1.206  0.00  0.00    +0.233 C 
BRANCH  26  27
ATOM     27  O   UNL     1      40.612  16.657  -0.469  0.00  0.00    -0.387 OA
ATOM     28  H   UNL     1      40.351  16.724   0.471  0.00  0.00    +0.210 HD
ENDBRANCH  26  27
ENDBRANCH  24  26
ENDBRANCH   4  24
TORSDOF 4
ENDMDL
