REMARK  Name = 
REMARK  6 active torsions:
REMARK  status: ('A' for Active; 'I' for Inactive)
REMARK    1  A    between atoms: C_5  and  O_6
REMARK    2  A    between atoms: C_5  and  C_7
REMARK    3  A    between atoms: C_7  and  C_9
REMARK    4  A    between atoms: C_9  and  O_10
REMARK    5  A    between atoms: C_11  and  C_12
REMARK    6  A    between atoms: C_28  and  C_29
REMARK                            x       y       z     vdW  Elec       q    Type
REMARK                         _______ _______ _______ _____ _____    ______ ____
ROOT
ATOM      1  C   UNL     1      -0.035  -0.425   0.087  0.00  0.00    +0.002 C 
ATOM      2  C   UNL     1       0.051  -1.575   1.079  0.00  0.00    +0.008 C 
ATOM      3  C   UNL     1       1.220  -2.408   0.529  0.00  0.00    +0.043 C 
ATOM      4  C   UNL     1       2.046  -1.463  -0.393  0.00  0.00    +0.132 C 
ATOM      5  C   UNL     1       1.452  -0.050  -0.133  0.00  0.00    +0.013 C 
ATOM      6  C   UNL     1       2.096   0.638   1.105  0.00  0.00    +0.015 C 
ATOM      7  C   UNL     1       1.516   0.914  -1.322  0.00  0.00    +0.084 C 
ATOM      8  C   UNL     1       0.693   2.129  -0.965  0.00  0.00    +0.138 C 
ATOM      9  O   UNL     1       1.217   3.247  -0.960  0.00  0.00    -0.297 OA
ATOM     10  C   UNL     1      -0.788   1.863  -0.651  0.00  0.00    +0.072 C 
ATOM     11  C   UNL     1      -0.925   0.763   0.443  0.00  0.00    +0.004 C 
ATOM     12  C   UNL     1      -2.394   0.329   0.533  0.00  0.00    +0.009 C 
ATOM     13  C   UNL     1      -3.271   1.512   0.918  0.00  0.00    +0.032 C 
ATOM     14  C   UNL     1      -3.079   2.645  -0.062  0.00  0.00    -0.056 C 
ATOM     15  C   UNL     1      -4.150   3.126  -0.720  0.00  0.00    +0.051 C 
ATOM     16  C   UNL     1      -4.019   4.155  -1.767  0.00  0.00    +0.179 C 
ATOM     17  O   UNL     1      -5.008   4.682  -2.262  0.00  0.00    -0.288 OA
ATOM     18  C   UNL     1      -2.662   4.511  -2.203  0.00  0.00    +0.047 C 
ATOM     19  C   UNL     1      -1.595   4.052  -1.542  0.00  0.00    -0.012 C 
ATOM     20  C   UNL     1      -1.636   3.127  -0.329  0.00  0.00    +0.017 C 
ATOM     21  C   UNL     1      -1.111   3.899   0.910  0.00  0.00    +0.021 C 
ENDROOT
BRANCH   4  22
ATOM     22  O   UNL     1       1.769  -1.837  -1.749  0.00  0.00    -0.380 OA
ATOM     23  H   UNL     1       2.010  -2.773  -1.869  0.00  0.00    +0.211 HD
ENDBRANCH   4  22
BRANCH   4  24
ATOM     24  C   UNL     1       3.561  -1.542  -0.138  0.00  0.00    +0.190 C 
ATOM     25  O   UNL     1       4.039  -1.821   0.965  0.00  0.00    -0.292 OA
BRANCH  24  26
ATOM     26  C   UNL     1       4.476  -1.248  -1.322  0.00  0.00    +0.233 C 
BRANCH  26  27
ATOM     27  O   UNL     1       5.846  -1.257  -0.949  0.00  0.00    -0.387 OA
ATOM     28  H   UNL     1       5.896  -1.727  -0.093  0.00  0.00    +0.210 HD
ENDBRANCH  26  27
ENDBRANCH  24  26
ENDBRANCH   4  24
TORSDOF 4
