
 OpenBabel12262519533D

 52 55  0  0  1  0  0  0  0  0999 V2000
   -0.4371   -0.8448   -0.8500 H   0  0  0  0  0  0  0  0  0  0  0  0
   -0.0348   -0.4251    0.0869 C   0  0  2  0  0  0  0  0  0  0  0  0
    0.0505   -1.5754    1.0791 C   0  0  0  0  0  0  0  0  0  0  0  0
    1.2195   -2.4079    0.5289 C   0  0  0  0  0  0  0  0  0  0  0  0
    2.0459   -1.4634   -0.3932 C   0  0  2  0  0  0  0  0  0  0  0  0
    1.7691   -1.8369   -1.7488 O   0  0  0  0  0  0  0  0  0  0  0  0
    3.5611   -1.5420   -0.1381 C   0  0  0  0  0  0  0  0  0  0  0  0
    4.0388   -1.8211    0.9653 O   0  0  0  0  0  0  0  0  0  0  0  0
    4.4759   -1.2481   -1.3224 C   0  0  0  0  0  0  0  0  0  0  0  0
    5.8457   -1.2570   -0.9492 O   0  0  0  0  0  0  0  0  0  0  0  0
    1.4522   -0.0500   -0.1331 C   0  0  2  0  0  0  0  0  0  0  0  0
    2.0958    0.6380    1.1051 C   0  0  0  0  0  0  0  0  0  0  0  0
    1.5160    0.9143   -1.3217 C   0  0  0  0  0  0  0  0  0  0  0  0
    0.6933    2.1292   -0.9648 C   0  0  0  0  0  0  0  0  0  0  0  0
    1.2167    3.2471   -0.9598 O   0  0  0  0  0  0  0  0  0  0  0  0
   -0.7877    1.8635   -0.6512 C   0  0  1  0  0  0  0  0  0  0  0  0
   -1.1792    1.4404   -1.5914 H   0  0  0  0  0  0  0  0  0  0  0  0
   -0.9251    0.7630    0.4434 C   0  0  1  0  0  0  0  0  0  0  0  0
   -0.6253    1.1615    1.4213 H   0  0  0  0  0  0  0  0  0  0  0  0
   -2.3938    0.3285    0.5329 C   0  0  0  0  0  0  0  0  0  0  0  0
   -3.2712    1.5118    0.9181 C   0  0  0  0  0  0  0  0  0  0  0  0
   -3.0786    2.6452   -0.0622 C   0  0  0  0  0  0  0  0  0  0  0  0
   -4.1496    3.1256   -0.7202 C   0  0  0  0  0  0  0  0  0  0  0  0
   -4.0195    4.1553   -1.7671 C   0  0  0  0  0  0  0  0  0  0  0  0
   -5.0083    4.6816   -2.2618 O   0  0  0  0  0  0  0  0  0  0  0  0
   -2.6617    4.5105   -2.2032 C   0  0  0  0  0  0  0  0  0  0  0  0
   -1.5946    4.0522   -1.5417 C   0  0  0  0  0  0  0  0  0  0  0  0
   -1.6364    3.1266   -0.3288 C   0  0  2  0  0  0  0  0  0  0  0  0
   -1.1107    3.8988    0.9096 C   0  0  0  0  0  0  0  0  0  0  0  0
    0.2697   -1.2202    2.0927 H   0  0  0  0  0  0  0  0  0  0  0  0
   -0.8710   -2.1622    1.1328 H   0  0  0  0  0  0  0  0  0  0  0  0
    1.7932   -2.8346    1.3565 H   0  0  0  0  0  0  0  0  0  0  0  0
    0.8068   -3.2449   -0.0484 H   0  0  0  0  0  0  0  0  0  0  0  0
    2.0105   -2.7732   -1.8695 H   0  0  0  0  0  0  0  0  0  0  0  0
    4.3282   -2.0198   -2.0821 H   0  0  0  0  0  0  0  0  0  0  0  0
    4.2436   -0.2677   -1.7413 H   0  0  0  0  0  0  0  0  0  0  0  0
    5.8965   -1.7273   -0.0931 H   0  0  0  0  0  0  0  0  0  0  0  0
    2.1333   -0.0134    1.9824 H   0  0  0  0  0  0  0  0  0  0  0  0
    1.5613    1.5445    1.4089 H   0  0  0  0  0  0  0  0  0  0  0  0
    3.1228    0.9506    0.8827 H   0  0  0  0  0  0  0  0  0  0  0  0
    2.5421    1.2236   -1.5403 H   0  0  0  0  0  0  0  0  0  0  0  0
    1.0921    0.4937   -2.2391 H   0  0  0  0  0  0  0  0  0  0  0  0
   -2.7226   -0.0744   -0.4361 H   0  0  0  0  0  0  0  0  0  0  0  0
   -2.5253   -0.4748    1.2661 H   0  0  0  0  0  0  0  0  0  0  0  0
   -3.0287    1.8416    1.9335 H   0  0  0  0  0  0  0  0  0  0  0  0
   -4.3154    1.1750    0.9418 H   0  0  0  0  0  0  0  0  0  0  0  0
   -5.1563    2.7706   -0.5437 H   0  0  0  0  0  0  0  0  0  0  0  0
   -2.5784    5.1609   -3.0644 H   0  0  0  0  0  0  0  0  0  0  0  0
   -0.6175    4.3724   -1.9023 H   0  0  0  0  0  0  0  0  0  0  0  0
   -0.0748    3.6445    1.1548 H   0  0  0  0  0  0  0  0  0  0  0  0
   -1.6949    3.7006    1.8146 H   0  0  0  0  0  0  0  0  0  0  0  0
   -1.1383    4.9850    0.7550 H   0  0  0  0  0  0  0  0  0  0  0  0
  2  1  1  6  0  0  0
  2  3  1  0  0  0  0
  2 11  1  0  0  0  0
  2 18  1  0  0  0  0
  3  4  1  0  0  0  0
  3 30  1  0  0  0  0
  3 31  1  0  0  0  0
  4  5  1  0  0  0  0
  4 32  1  0  0  0  0
  4 33  1  0  0  0  0
  5  6  1  6  0  0  0
  5  7  1  0  0  0  0
  5 11  1  0  0  0  0
  6 34  1  0  0  0  0
  7  8  2  0  0  0  0
  7  9  1  0  0  0  0
  9 10  1  0  0  0  0
  9 35  1  0  0  0  0
  9 36  1  0  0  0  0
 10 37  1  0  0  0  0
 11 12  1  1  0  0  0
 11 13  1  0  0  0  0
 12 38  1  0  0  0  0
 12 39  1  0  0  0  0
 12 40  1  0  0  0  0
 13 14  1  0  0  0  0
 13 41  1  0  0  0  0
 13 42  1  0  0  0  0
 14 15  2  0  0  0  0
 14 16  1  0  0  0  0
 16 17  1  6  0  0  0
 16 18  1  0  0  0  0
 16 28  1  0  0  0  0
 18 19  1  1  0  0  0
 18 20  1  0  0  0  0
 20 21  1  0  0  0  0
 20 43  1  0  0  0  0
 20 44  1  0  0  0  0
 21 22  1  0  0  0  0
 21 45  1  0  0  0  0
 21 46  1  0  0  0  0
 22 23  2  0  0  0  0
 22 28  1  0  0  0  0
 23 24  1  0  0  0  0
 23 47  1  0  0  0  0
 24 25  2  0  0  0  0
 24 26  1  0  0  0  0
 26 27  2  0  0  0  0
 26 48  1  0  0  0  0
 27 28  1  0  0  0  0
 27 49  1  0  0  0  0
 28 29  1  1  0  0  0
 29 50  1  0  0  0  0
 29 51  1  0  0  0  0
 29 52  1  0  0  0  0
M  END
$$$$
